<?xml version="1.0" encoding="iso-8859-1"?>
<configuration xmlns:xsi="http://www.w3.org/2001/XMLSchema-instance"
xsi:noNamespaceSchemaLocation="http://sumo.sf.net/xsd/sumoConfiguration.xsd">
<input>
<net-file value="map.net.xml"/>
<route-files value="map_fix.rou.xml"/>
<!-- additional-files value="erlangen.poly.xml"/ -->
</input>
<time>
<begin value="0"/>
<end value="200"/>
<step-length value="0.1"/>
</time>
<report>
<no-step-log value="true"/>
</report>
<gui_only>
<start value="false"/>
</gui_only>
</configuration>