<?xml version="1.0" encoding="UTF-8"?>

<!-- generated on 08/20/19 10:25:42 by SUMO duarouter Version 0.30.0
<?xml version="1.0" encoding="UTF-8"?>

<configuration xmlns:xsi="http://www.w3.org/2001/XMLSchema-instance" xsi:noNamespaceSchemaLocation="http://sumo.dlr.de/xsd/duarouterConfiguration.xsd">

    <input>
        <net-file value="map.net.xml"/>
        <trip-files value="trips.trips.xml"/>
    </input>

    <output>
        <output-file value="map.rou.xml"/>
    </output>

    <processing>
        <ignore-errors value="true"/>
    </processing>

    <time>
        <begin value="0.0"/>
        <end value="3600.0"/>
    </time>

    <report>
        <no-warnings value="true"/>
        <no-step-log value="true"/>
    </report>

</configuration>
-->

<routes xmlns:xsi="http://www.w3.org/2001/XMLSchema-instance" xsi:noNamespaceSchemaLocation="http://sumo.dlr.de/xsd/routes_file.xsd">
    <vehicle id="0" depart="0.00">
        <route edges="0/0to1/0 1/0to1/1 1/1to1/2 1/2to2/2 2/2to2/1 2/1to1/1 1/1to0/1 0/1to0/0"/>
    </vehicle>
    <vehicle id="1" depart="0.00">
        <route edges="0/0to1/0 1/0to1/1 1/1to1/2 1/2to2/2 2/2to2/1 2/1to1/1 1/1to0/1 0/1to0/0"/>
    </vehicle>
</routes>
