<?xml version="1.0" encoding="UTF-8"?>

<!-- generated on 05/18/20 10:11:07 by SUMO netgenerate Version 0.32.0
<?xml version="1.0" encoding="UTF-8"?>

<configuration xmlns:xsi="http://www.w3.org/2001/XMLSchema-instance" xsi:noNamespaceSchemaLocation="http://sumo.dlr.de/xsd/netgenerateConfiguration.xsd">

    <grid_network>
        <grid value="true"/>
        <grid.number value="3"/>
        <grid.length value="150"/>
    </grid_network>

    <output>
        <output-file value="map00.net.xml"/>
    </output>

    <building_defaults>
        <default.lanenumber value="4"/>
    </building_defaults>

</configuration>
-->

<net version="0.27" xmlns:xsi="http://www.w3.org/2001/XMLSchema-instance" xsi:noNamespaceSchemaLocation="http://sumo.dlr.de/xsd/net_file.xsd">

    <location netOffset="0.00,0.00" convBoundary="0.00,0.00,300.00,300.00" origBoundary="0.00,0.00,300.00,300.00" projParameter="!"/>

    <edge id=":0/0_0" function="internal">
        <lane id=":0/0_0_0" index="0" speed="13.90" length="39.83" shape="-11.55,13.15 -10.01,2.34 -5.38,-5.37 2.34,-10.01 13.15,-11.55"/>
    </edge>
    <edge id=":0/0_1" function="internal">
        <lane id=":0/0_1_0" index="0" speed="13.90" length="34.51" shape="-8.25,13.15 -6.91,3.79 -2.90,-2.90 3.79,-6.91 13.15,-8.25"/>
    </edge>
    <edge id=":0/0_2" function="internal">
        <lane id=":0/0_2_0" index="0" speed="13.90" length="29.19" shape="-4.95,13.15 -3.82,5.23 -0.42,-0.43 5.23,-3.82 13.15,-4.95"/>
    </edge>
    <edge id=":0/0_3" function="internal">
        <lane id=":0/0_3_0" index="0" speed="13.90" length="23.87" shape="-1.65,13.15 -0.72,6.67 2.05,2.05 6.68,-0.73 13.15,-1.65"/>
    </edge>
    <edge id=":0/0_4" function="internal">
        <lane id=":0/0_4_0" index="0" speed="13.90" length="2.69" shape="-1.65,13.15 -0.83,11.91 0.00,11.50 0.25,11.63"/>
    </edge>
    <edge id=":0/0_10" function="internal">
        <lane id=":0/0_10_0" index="0" speed="13.90" length="2.13" shape="0.25,11.63 0.83,11.91 1.65,13.15"/>
    </edge>
    <edge id=":0/0_5" function="internal">
        <lane id=":0/0_5_0" index="0" speed="13.90" length="2.58" shape="13.15,11.55 12.45,11.65 11.95,11.95 11.65,12.45 11.55,13.15"/>
    </edge>
    <edge id=":0/0_6" function="internal">
        <lane id=":0/0_6_0" index="0" speed="13.90" length="7.90" shape="13.15,8.25 11.01,8.56 9.48,9.48 8.56,11.01 8.25,13.15"/>
    </edge>
    <edge id=":0/0_7" function="internal">
        <lane id=":0/0_7_0" index="0" speed="13.90" length="13.22" shape="13.15,4.95 9.56,5.46 7.00,7.00 5.46,9.56 4.95,13.15"/>
    </edge>
    <edge id=":0/0_8" function="internal">
        <lane id=":0/0_8_0" index="0" speed="13.90" length="18.55" shape="13.15,1.65 8.12,2.37 4.53,4.53 2.37,8.12 1.65,13.15"/>
    </edge>
    <edge id=":0/0_9" function="internal">
        <lane id=":0/0_9_0" index="0" speed="13.90" length="2.20" shape="13.15,1.65 11.91,0.83 11.59,0.19"/>
    </edge>
    <edge id=":0/0_11" function="internal">
        <lane id=":0/0_11_0" index="0" speed="13.90" length="2.62" shape="11.59,0.19 11.50,0.00 11.91,-0.83 13.15,-1.65"/>
    </edge>
    <edge id=":0/1_0" function="internal">
        <lane id=":0/1_0_0" index="0" speed="13.90" length="29.30" shape="-11.55,164.65 -11.55,135.35"/>
        <lane id=":0/1_0_1" index="1" speed="13.90" length="29.30" shape="-8.25,164.65 -8.25,135.35"/>
        <lane id=":0/1_0_2" index="2" speed="13.90" length="29.30" shape="-4.95,164.65 -4.95,135.35"/>
        <lane id=":0/1_0_3" index="3" speed="13.90" length="29.30" shape="-1.65,164.65 -1.65,135.35"/>
    </edge>
    <edge id=":0/1_4" function="internal">
        <lane id=":0/1_4_0" index="0" speed="13.90" length="10.16" shape="-1.65,164.65 -0.63,156.08 0.05,154.71"/>
    </edge>
    <edge id=":0/1_5" function="internal">
        <lane id=":0/1_5_0" index="0" speed="13.90" length="8.53" shape="-1.65,164.65 -0.63,157.52 0.05,156.38"/>
    </edge>
    <edge id=":0/1_6" function="internal">
        <lane id=":0/1_6_0" index="0" speed="13.90" length="2.41" shape="-1.65,164.65 -0.83,163.41 0.00,163.00"/>
    </edge>
    <edge id=":0/1_20" function="internal">
        <lane id=":0/1_20_0" index="0" speed="13.90" length="18.84" shape="0.05,154.71 2.43,149.95 7.52,146.28 14.65,145.05"/>
    </edge>
    <edge id=":0/1_21" function="internal">
        <lane id=":0/1_21_0" index="0" speed="13.90" length="17.76" shape="0.05,156.38 2.43,152.43 7.52,149.37 14.65,148.35"/>
    </edge>
    <edge id=":0/1_22" function="internal">
        <lane id=":0/1_22_0" index="0" speed="13.90" length="2.41" shape="0.00,163.00 0.83,163.41 1.65,164.65"/>
    </edge>
    <edge id=":0/1_7" function="internal">
        <lane id=":0/1_7_0" index="0" speed="13.90" length="5.00" shape="14.65,161.55 13.29,161.74 12.32,162.33 11.74,163.29 11.55,164.65"/>
    </edge>
    <edge id=":0/1_8" function="internal">
        <lane id=":0/1_8_0" index="0" speed="13.90" length="10.32" shape="14.65,158.25 11.85,158.65 9.85,159.85 8.65,161.85 8.25,164.65"/>
    </edge>
    <edge id=":0/1_9" function="internal">
        <lane id=":0/1_9_0" index="0" speed="13.90" length="13.09" shape="14.65,158.25 10.41,158.65 7.38,159.85 5.56,161.85 4.95,164.65"/>
    </edge>
    <edge id=":0/1_10" function="internal">
        <lane id=":0/1_10_0" index="0" speed="13.90" length="31.61" shape="14.65,154.95 6.08,153.72 -0.05,150.05 -3.73,143.92 -4.95,135.35"/>
    </edge>
    <edge id=":0/1_11" function="internal">
        <lane id=":0/1_11_0" index="0" speed="13.90" length="26.29" shape="14.65,151.65 7.52,150.63 2.42,147.58 -0.63,142.48 -1.65,135.35"/>
    </edge>
    <edge id=":0/1_12" function="internal">
        <lane id=":0/1_12_0" index="0" speed="13.90" length="4.82" shape="14.65,151.65 13.41,150.83 13.00,150.00 13.41,149.18 14.65,148.35"/>
    </edge>
    <edge id=":0/1_13" function="internal">
        <lane id=":0/1_13_0" index="0" speed="13.90" length="5.00" shape="11.55,135.35 11.74,136.71 12.33,137.68 13.29,138.26 14.65,138.45"/>
    </edge>
    <edge id=":0/1_14" function="internal">
        <lane id=":0/1_14_0" index="0" speed="13.90" length="7.85" shape="11.55,135.35 11.74,138.15 12.33,140.15 13.29,141.35 14.65,141.75"/>
    </edge>
    <edge id=":0/1_15" function="internal">
        <lane id=":0/1_15_0" index="0" speed="13.90" length="29.30" shape="11.55,135.35 11.55,164.65"/>
        <lane id=":0/1_15_1" index="1" speed="13.90" length="29.30" shape="8.25,135.35 8.25,164.65"/>
        <lane id=":0/1_15_2" index="2" speed="13.90" length="29.30" shape="4.95,135.35 4.95,164.65"/>
        <lane id=":0/1_15_3" index="3" speed="13.90" length="29.30" shape="1.65,135.35 1.65,164.65"/>
    </edge>
    <edge id=":0/1_19" function="internal">
        <lane id=":0/1_19_0" index="0" speed="13.90" length="2.41" shape="1.65,135.35 0.83,136.59 0.00,137.00"/>
    </edge>
    <edge id=":0/1_23" function="internal">
        <lane id=":0/1_23_0" index="0" speed="13.90" length="2.41" shape="0.00,137.00 -0.83,136.59 -1.65,135.35"/>
    </edge>
    <edge id=":0/2_0" function="internal">
        <lane id=":0/2_0_0" index="0" speed="13.90" length="39.83" shape="13.15,311.55 2.34,310.01 -5.38,305.38 -10.01,297.66 -11.55,286.85"/>
    </edge>
    <edge id=":0/2_1" function="internal">
        <lane id=":0/2_1_0" index="0" speed="13.90" length="34.51" shape="13.15,308.25 3.79,306.91 -2.90,302.90 -6.91,296.21 -8.25,286.85"/>
    </edge>
    <edge id=":0/2_2" function="internal">
        <lane id=":0/2_2_0" index="0" speed="13.90" length="29.19" shape="13.15,304.95 5.23,303.82 -0.43,300.42 -3.82,294.77 -4.95,286.85"/>
    </edge>
    <edge id=":0/2_3" function="internal">
        <lane id=":0/2_3_0" index="0" speed="13.90" length="23.87" shape="13.15,301.65 6.68,300.73 2.05,297.95 -0.72,293.32 -1.65,286.85"/>
    </edge>
    <edge id=":0/2_4" function="internal">
        <lane id=":0/2_4_0" index="0" speed="13.90" length="2.69" shape="13.15,301.65 11.91,300.83 11.50,300.00 11.63,299.75"/>
    </edge>
    <edge id=":0/2_10" function="internal">
        <lane id=":0/2_10_0" index="0" speed="13.90" length="2.13" shape="11.63,299.75 11.91,299.18 13.15,298.35"/>
    </edge>
    <edge id=":0/2_5" function="internal">
        <lane id=":0/2_5_0" index="0" speed="13.90" length="2.58" shape="11.55,286.85 11.65,287.55 11.95,288.05 12.45,288.35 13.15,288.45"/>
    </edge>
    <edge id=":0/2_6" function="internal">
        <lane id=":0/2_6_0" index="0" speed="13.90" length="7.90" shape="8.25,286.85 8.56,288.99 9.48,290.52 11.01,291.44 13.15,291.75"/>
    </edge>
    <edge id=":0/2_7" function="internal">
        <lane id=":0/2_7_0" index="0" speed="13.90" length="13.22" shape="4.95,286.85 5.46,290.44 7.00,293.00 9.56,294.54 13.15,295.05"/>
    </edge>
    <edge id=":0/2_8" function="internal">
        <lane id=":0/2_8_0" index="0" speed="13.90" length="18.55" shape="1.65,286.85 2.37,291.88 4.53,295.48 8.12,297.63 13.15,298.35"/>
    </edge>
    <edge id=":0/2_9" function="internal">
        <lane id=":0/2_9_0" index="0" speed="13.90" length="2.20" shape="1.65,286.85 0.83,288.09 0.19,288.41"/>
    </edge>
    <edge id=":0/2_11" function="internal">
        <lane id=":0/2_11_0" index="0" speed="13.90" length="2.62" shape="0.19,288.41 0.00,288.50 -0.83,288.09 -1.65,286.85"/>
    </edge>
    <edge id=":1/0_0" function="internal">
        <lane id=":1/0_0_0" index="0" speed="13.90" length="5.00" shape="138.45,14.65 138.26,13.29 137.67,12.32 136.71,11.74 135.35,11.55"/>
    </edge>
    <edge id=":1/0_1" function="internal">
        <lane id=":1/0_1_0" index="0" speed="13.90" length="10.32" shape="141.75,14.65 141.35,11.85 140.15,9.85 138.15,8.65 135.35,8.25"/>
    </edge>
    <edge id=":1/0_2" function="internal">
        <lane id=":1/0_2_0" index="0" speed="13.90" length="13.09" shape="141.75,14.65 141.35,10.41 140.15,7.38 138.15,5.56 135.35,4.95"/>
    </edge>
    <edge id=":1/0_3" function="internal">
        <lane id=":1/0_3_0" index="0" speed="13.90" length="31.61" shape="145.05,14.65 146.28,6.08 149.95,-0.05 156.08,-3.73 164.65,-4.95"/>
    </edge>
    <edge id=":1/0_4" function="internal">
        <lane id=":1/0_4_0" index="0" speed="13.90" length="26.29" shape="148.35,14.65 149.37,7.52 152.42,2.42 157.52,-0.63 164.65,-1.65"/>
    </edge>
    <edge id=":1/0_5" function="internal">
        <lane id=":1/0_5_0" index="0" speed="13.90" length="4.82" shape="148.35,14.65 149.17,13.41 150.00,13.00 150.82,13.41 151.65,14.65"/>
    </edge>
    <edge id=":1/0_6" function="internal">
        <lane id=":1/0_6_0" index="0" speed="13.90" length="5.00" shape="164.65,11.55 163.29,11.74 162.32,12.33 161.74,13.29 161.55,14.65"/>
    </edge>
    <edge id=":1/0_7" function="internal">
        <lane id=":1/0_7_0" index="0" speed="13.90" length="7.85" shape="164.65,11.55 161.85,11.74 159.85,12.33 158.65,13.29 158.25,14.65"/>
    </edge>
    <edge id=":1/0_8" function="internal">
        <lane id=":1/0_8_0" index="0" speed="13.90" length="29.30" shape="164.65,11.55 135.35,11.55"/>
        <lane id=":1/0_8_1" index="1" speed="13.90" length="29.30" shape="164.65,8.25 135.35,8.25"/>
        <lane id=":1/0_8_2" index="2" speed="13.90" length="29.30" shape="164.65,4.95 135.35,4.95"/>
        <lane id=":1/0_8_3" index="3" speed="13.90" length="29.30" shape="164.65,1.65 135.35,1.65"/>
    </edge>
    <edge id=":1/0_12" function="internal">
        <lane id=":1/0_12_0" index="0" speed="13.90" length="2.41" shape="164.65,1.65 163.41,0.83 163.00,0.00"/>
    </edge>
    <edge id=":1/0_20" function="internal">
        <lane id=":1/0_20_0" index="0" speed="13.90" length="2.41" shape="163.00,0.00 163.41,-0.83 164.65,-1.65"/>
    </edge>
    <edge id=":1/0_13" function="internal">
        <lane id=":1/0_13_0" index="0" speed="13.90" length="29.30" shape="135.35,-11.55 164.65,-11.55"/>
        <lane id=":1/0_13_1" index="1" speed="13.90" length="29.30" shape="135.35,-8.25 164.65,-8.25"/>
        <lane id=":1/0_13_2" index="2" speed="13.90" length="29.30" shape="135.35,-4.95 164.65,-4.95"/>
        <lane id=":1/0_13_3" index="3" speed="13.90" length="29.30" shape="135.35,-1.65 164.65,-1.65"/>
    </edge>
    <edge id=":1/0_17" function="internal">
        <lane id=":1/0_17_0" index="0" speed="13.90" length="10.16" shape="135.35,-1.65 143.92,-0.63 145.29,0.05"/>
    </edge>
    <edge id=":1/0_18" function="internal">
        <lane id=":1/0_18_0" index="0" speed="13.90" length="8.53" shape="135.35,-1.65 142.48,-0.63 143.62,0.05"/>
    </edge>
    <edge id=":1/0_19" function="internal">
        <lane id=":1/0_19_0" index="0" speed="13.90" length="2.41" shape="135.35,-1.65 136.59,-0.83 137.00,0.00"/>
    </edge>
    <edge id=":1/0_21" function="internal">
        <lane id=":1/0_21_0" index="0" speed="13.90" length="18.84" shape="145.29,0.05 150.05,2.43 153.72,7.52 154.95,14.65"/>
    </edge>
    <edge id=":1/0_22" function="internal">
        <lane id=":1/0_22_0" index="0" speed="13.90" length="17.76" shape="143.62,0.05 147.57,2.43 150.63,7.52 151.65,14.65"/>
    </edge>
    <edge id=":1/0_23" function="internal">
        <lane id=":1/0_23_0" index="0" speed="13.90" length="2.41" shape="137.00,0.00 136.59,0.83 135.35,1.65"/>
    </edge>
    <edge id=":1/1_0" function="internal">
        <lane id=":1/1_0_0" index="0" speed="13.90" length="5.00" shape="138.45,164.65 138.26,163.29 137.67,162.32 136.71,161.74 135.35,161.55"/>
    </edge>
    <edge id=":1/1_1" function="internal">
        <lane id=":1/1_1_0" index="0" speed="13.90" length="29.30" shape="138.45,164.65 138.45,135.35"/>
        <lane id=":1/1_1_1" index="1" speed="13.90" length="29.30" shape="141.75,164.65 141.75,135.35"/>
        <lane id=":1/1_1_2" index="2" speed="13.90" length="29.30" shape="145.05,164.65 145.05,135.35"/>
        <lane id=":1/1_1_3" index="3" speed="13.90" length="29.30" shape="148.35,164.65 148.35,135.35"/>
    </edge>
    <edge id=":1/1_5" function="internal">
        <lane id=":1/1_5_0" index="0" speed="13.90" length="8.53" shape="148.35,164.65 149.37,157.52 150.05,156.38"/>
    </edge>
    <edge id=":1/1_6" function="internal">
        <lane id=":1/1_6_0" index="0" speed="13.90" length="2.41" shape="148.35,164.65 149.17,163.41 150.00,163.00"/>
    </edge>
    <edge id=":1/1_30" function="internal">
        <lane id=":1/1_30_0" index="0" speed="13.90" length="17.76" shape="150.05,156.38 152.42,152.43 157.52,149.37 164.65,148.35"/>
    </edge>
    <edge id=":1/1_31" function="internal">
        <lane id=":1/1_31_0" index="0" speed="13.90" length="2.41" shape="150.00,163.00 150.82,163.41 151.65,164.65"/>
    </edge>
    <edge id=":1/1_7" function="internal">
        <lane id=":1/1_7_0" index="0" speed="13.90" length="5.00" shape="164.65,161.55 163.29,161.74 162.32,162.33 161.74,163.29 161.55,164.65"/>
    </edge>
    <edge id=":1/1_8" function="internal">
        <lane id=":1/1_8_0" index="0" speed="13.90" length="10.32" shape="164.65,158.25 161.85,158.65 159.85,159.85 158.65,161.85 158.25,164.65"/>
    </edge>
    <edge id=":1/1_9" function="internal">
        <lane id=":1/1_9_0" index="0" speed="13.90" length="29.38" shape="164.65,158.25 135.35,158.25"/>
        <lane id=":1/1_9_1" index="1" speed="13.90" length="29.38" shape="164.65,154.95 135.35,154.95"/>
        <lane id=":1/1_9_2" index="2" speed="13.90" length="29.38" shape="164.65,154.95 155.93,154.43 150.00,153.30 144.07,152.17 135.35,151.65"/>
    </edge>
    <edge id=":1/1_12" function="internal">
        <lane id=":1/1_12_0" index="0" speed="13.90" length="31.61" shape="164.65,154.95 156.08,153.72 149.95,150.05 146.28,143.92 145.05,135.35"/>
    </edge>
    <edge id=":1/1_13" function="internal">
        <lane id=":1/1_13_0" index="0" speed="13.90" length="26.29" shape="164.65,151.65 157.52,150.63 152.43,147.58 149.37,142.48 148.35,135.35"/>
    </edge>
    <edge id=":1/1_14" function="internal">
        <lane id=":1/1_14_0" index="0" speed="13.90" length="4.82" shape="164.65,151.65 163.41,150.83 163.00,150.00 163.41,149.18 164.65,148.35"/>
    </edge>
    <edge id=":1/1_15" function="internal">
        <lane id=":1/1_15_0" index="0" speed="13.90" length="5.00" shape="161.55,135.35 161.74,136.71 162.33,137.68 163.29,138.26 164.65,138.45"/>
    </edge>
    <edge id=":1/1_16" function="internal">
        <lane id=":1/1_16_0" index="0" speed="13.90" length="29.30" shape="161.55,135.35 161.55,164.65"/>
        <lane id=":1/1_16_1" index="1" speed="13.90" length="29.30" shape="158.25,135.35 158.25,164.65"/>
        <lane id=":1/1_16_2" index="2" speed="13.90" length="29.30" shape="154.95,135.35 154.95,164.65"/>
        <lane id=":1/1_16_3" index="3" speed="13.90" length="29.30" shape="151.65,135.35 151.65,164.65"/>
    </edge>
    <edge id=":1/1_20" function="internal">
        <lane id=":1/1_20_0" index="0" speed="13.90" length="8.53" shape="151.65,135.35 150.63,142.48 149.95,143.62"/>
    </edge>
    <edge id=":1/1_21" function="internal">
        <lane id=":1/1_21_0" index="0" speed="13.90" length="2.41" shape="151.65,135.35 150.83,136.59 150.00,137.00"/>
    </edge>
    <edge id=":1/1_32" function="internal">
        <lane id=":1/1_32_0" index="0" speed="13.90" length="17.76" shape="149.95,143.62 147.58,147.57 142.48,150.63 135.35,151.65"/>
    </edge>
    <edge id=":1/1_33" function="internal">
        <lane id=":1/1_33_0" index="0" speed="13.90" length="2.41" shape="150.00,137.00 149.18,136.59 148.35,135.35"/>
    </edge>
    <edge id=":1/1_22" function="internal">
        <lane id=":1/1_22_0" index="0" speed="13.90" length="5.00" shape="135.35,138.45 136.71,138.26 137.68,137.67 138.26,136.71 138.45,135.35"/>
    </edge>
    <edge id=":1/1_23" function="internal">
        <lane id=":1/1_23_0" index="0" speed="13.90" length="10.32" shape="135.35,141.75 138.15,141.35 140.15,140.15 141.35,138.15 141.75,135.35"/>
    </edge>
    <edge id=":1/1_24" function="internal">
        <lane id=":1/1_24_0" index="0" speed="13.90" length="29.38" shape="135.35,141.75 164.65,141.75"/>
        <lane id=":1/1_24_1" index="1" speed="13.90" length="29.38" shape="135.35,145.05 164.65,145.05"/>
        <lane id=":1/1_24_2" index="2" speed="13.90" length="29.38" shape="135.35,145.05 144.07,145.57 150.00,146.70 155.93,147.83 164.65,148.35"/>
    </edge>
    <edge id=":1/1_27" function="internal">
        <lane id=":1/1_27_0" index="0" speed="13.90" length="31.61" shape="135.35,145.05 143.92,146.28 150.05,149.95 153.72,156.08 154.95,164.65"/>
    </edge>
    <edge id=":1/1_28" function="internal">
        <lane id=":1/1_28_0" index="0" speed="13.90" length="26.29" shape="135.35,148.35 142.48,149.37 147.57,152.42 150.63,157.52 151.65,164.65"/>
    </edge>
    <edge id=":1/1_29" function="internal">
        <lane id=":1/1_29_0" index="0" speed="13.90" length="4.82" shape="135.35,148.35 136.59,149.17 137.00,150.00 136.59,150.82 135.35,151.65"/>
    </edge>
    <edge id=":1/2_0" function="internal">
        <lane id=":1/2_0_0" index="0" speed="13.90" length="29.30" shape="164.65,311.55 135.35,311.55"/>
        <lane id=":1/2_0_1" index="1" speed="13.90" length="29.30" shape="164.65,308.25 135.35,308.25"/>
        <lane id=":1/2_0_2" index="2" speed="13.90" length="29.30" shape="164.65,304.95 135.35,304.95"/>
        <lane id=":1/2_0_3" index="3" speed="13.90" length="29.30" shape="164.65,301.65 135.35,301.65"/>
    </edge>
    <edge id=":1/2_4" function="internal">
        <lane id=":1/2_4_0" index="0" speed="13.90" length="10.16" shape="164.65,301.65 156.08,300.63 154.71,299.95"/>
    </edge>
    <edge id=":1/2_5" function="internal">
        <lane id=":1/2_5_0" index="0" speed="13.90" length="8.53" shape="164.65,301.65 157.52,300.63 156.38,299.95"/>
    </edge>
    <edge id=":1/2_6" function="internal">
        <lane id=":1/2_6_0" index="0" speed="13.90" length="2.41" shape="164.65,301.65 163.41,300.83 163.00,300.00"/>
    </edge>
    <edge id=":1/2_20" function="internal">
        <lane id=":1/2_20_0" index="0" speed="13.90" length="18.84" shape="154.71,299.95 149.95,297.57 146.28,292.48 145.05,285.35"/>
    </edge>
    <edge id=":1/2_21" function="internal">
        <lane id=":1/2_21_0" index="0" speed="13.90" length="17.76" shape="156.38,299.95 152.43,297.57 149.37,292.48 148.35,285.35"/>
    </edge>
    <edge id=":1/2_22" function="internal">
        <lane id=":1/2_22_0" index="0" speed="13.90" length="2.41" shape="163.00,300.00 163.41,299.18 164.65,298.35"/>
    </edge>
    <edge id=":1/2_7" function="internal">
        <lane id=":1/2_7_0" index="0" speed="13.90" length="5.00" shape="161.55,285.35 161.74,286.71 162.33,287.68 163.29,288.26 164.65,288.45"/>
    </edge>
    <edge id=":1/2_8" function="internal">
        <lane id=":1/2_8_0" index="0" speed="13.90" length="10.32" shape="158.25,285.35 158.65,288.15 159.85,290.15 161.85,291.35 164.65,291.75"/>
    </edge>
    <edge id=":1/2_9" function="internal">
        <lane id=":1/2_9_0" index="0" speed="13.90" length="13.09" shape="158.25,285.35 158.65,289.59 159.85,292.63 161.85,294.44 164.65,295.05"/>
    </edge>
    <edge id=":1/2_10" function="internal">
        <lane id=":1/2_10_0" index="0" speed="13.90" length="31.61" shape="154.95,285.35 153.72,293.92 150.05,300.05 143.92,303.72 135.35,304.95"/>
    </edge>
    <edge id=":1/2_11" function="internal">
        <lane id=":1/2_11_0" index="0" speed="13.90" length="26.29" shape="151.65,285.35 150.63,292.48 147.58,297.57 142.48,300.63 135.35,301.65"/>
    </edge>
    <edge id=":1/2_12" function="internal">
        <lane id=":1/2_12_0" index="0" speed="13.90" length="4.82" shape="151.65,285.35 150.83,286.59 150.00,287.00 149.18,286.59 148.35,285.35"/>
    </edge>
    <edge id=":1/2_13" function="internal">
        <lane id=":1/2_13_0" index="0" speed="13.90" length="5.00" shape="135.35,288.45 136.71,288.26 137.68,287.67 138.26,286.71 138.45,285.35"/>
    </edge>
    <edge id=":1/2_14" function="internal">
        <lane id=":1/2_14_0" index="0" speed="13.90" length="7.85" shape="135.35,288.45 138.15,288.26 140.15,287.67 141.35,286.71 141.75,285.35"/>
    </edge>
    <edge id=":1/2_15" function="internal">
        <lane id=":1/2_15_0" index="0" speed="13.90" length="29.30" shape="135.35,288.45 164.65,288.45"/>
        <lane id=":1/2_15_1" index="1" speed="13.90" length="29.30" shape="135.35,291.75 164.65,291.75"/>
        <lane id=":1/2_15_2" index="2" speed="13.90" length="29.30" shape="135.35,295.05 164.65,295.05"/>
        <lane id=":1/2_15_3" index="3" speed="13.90" length="29.30" shape="135.35,298.35 164.65,298.35"/>
    </edge>
    <edge id=":1/2_19" function="internal">
        <lane id=":1/2_19_0" index="0" speed="13.90" length="2.41" shape="135.35,298.35 136.59,299.17 137.00,300.00"/>
    </edge>
    <edge id=":1/2_23" function="internal">
        <lane id=":1/2_23_0" index="0" speed="13.90" length="2.41" shape="137.00,300.00 136.59,300.82 135.35,301.65"/>
    </edge>
    <edge id=":2/0_0" function="internal">
        <lane id=":2/0_0_0" index="0" speed="13.90" length="2.58" shape="288.45,13.15 288.35,12.45 288.05,11.95 287.55,11.65 286.85,11.55"/>
    </edge>
    <edge id=":2/0_1" function="internal">
        <lane id=":2/0_1_0" index="0" speed="13.90" length="7.90" shape="291.75,13.15 291.44,11.01 290.52,9.48 288.99,8.56 286.85,8.25"/>
    </edge>
    <edge id=":2/0_2" function="internal">
        <lane id=":2/0_2_0" index="0" speed="13.90" length="13.22" shape="295.05,13.15 294.54,9.56 293.00,7.00 290.44,5.46 286.85,4.95"/>
    </edge>
    <edge id=":2/0_3" function="internal">
        <lane id=":2/0_3_0" index="0" speed="13.90" length="18.55" shape="298.35,13.15 297.63,8.12 295.48,4.53 291.88,2.37 286.85,1.65"/>
    </edge>
    <edge id=":2/0_4" function="internal">
        <lane id=":2/0_4_0" index="0" speed="13.90" length="2.20" shape="298.35,13.15 299.17,11.91 299.81,11.59"/>
    </edge>
    <edge id=":2/0_10" function="internal">
        <lane id=":2/0_10_0" index="0" speed="13.90" length="2.62" shape="299.81,11.59 300.00,11.50 300.82,11.91 301.65,13.15"/>
    </edge>
    <edge id=":2/0_5" function="internal">
        <lane id=":2/0_5_0" index="0" speed="13.90" length="39.83" shape="286.85,-11.55 297.66,-10.01 305.38,-5.38 310.01,2.34 311.55,13.15"/>
    </edge>
    <edge id=":2/0_6" function="internal">
        <lane id=":2/0_6_0" index="0" speed="13.90" length="34.51" shape="286.85,-8.25 296.21,-6.91 302.90,-2.90 306.91,3.79 308.25,13.15"/>
    </edge>
    <edge id=":2/0_7" function="internal">
        <lane id=":2/0_7_0" index="0" speed="13.90" length="29.19" shape="286.85,-4.95 294.77,-3.82 300.43,-0.42 303.82,5.23 304.95,13.15"/>
    </edge>
    <edge id=":2/0_8" function="internal">
        <lane id=":2/0_8_0" index="0" speed="13.90" length="23.87" shape="286.85,-1.65 293.32,-0.72 297.95,2.05 300.73,6.68 301.65,13.15"/>
    </edge>
    <edge id=":2/0_9" function="internal">
        <lane id=":2/0_9_0" index="0" speed="13.90" length="2.69" shape="286.85,-1.65 288.09,-0.83 288.50,0.00 288.37,0.25"/>
    </edge>
    <edge id=":2/0_11" function="internal">
        <lane id=":2/0_11_0" index="0" speed="13.90" length="2.13" shape="288.37,0.25 288.09,0.83 286.85,1.65"/>
    </edge>
    <edge id=":2/1_0" function="internal">
        <lane id=":2/1_0_0" index="0" speed="13.90" length="5.00" shape="288.45,164.65 288.26,163.29 287.67,162.32 286.71,161.74 285.35,161.55"/>
    </edge>
    <edge id=":2/1_1" function="internal">
        <lane id=":2/1_1_0" index="0" speed="13.90" length="7.85" shape="288.45,164.65 288.26,161.85 287.67,159.85 286.71,158.65 285.35,158.25"/>
    </edge>
    <edge id=":2/1_2" function="internal">
        <lane id=":2/1_2_0" index="0" speed="13.90" length="29.30" shape="288.45,164.65 288.45,135.35"/>
        <lane id=":2/1_2_1" index="1" speed="13.90" length="29.30" shape="291.75,164.65 291.75,135.35"/>
        <lane id=":2/1_2_2" index="2" speed="13.90" length="29.30" shape="295.05,164.65 295.05,135.35"/>
        <lane id=":2/1_2_3" index="3" speed="13.90" length="29.30" shape="298.35,164.65 298.35,135.35"/>
    </edge>
    <edge id=":2/1_6" function="internal">
        <lane id=":2/1_6_0" index="0" speed="13.90" length="2.41" shape="298.35,164.65 299.17,163.41 300.00,163.00"/>
    </edge>
    <edge id=":2/1_20" function="internal">
        <lane id=":2/1_20_0" index="0" speed="13.90" length="2.41" shape="300.00,163.00 300.82,163.41 301.65,164.65"/>
    </edge>
    <edge id=":2/1_7" function="internal">
        <lane id=":2/1_7_0" index="0" speed="13.90" length="29.30" shape="311.55,135.35 311.55,164.65"/>
        <lane id=":2/1_7_1" index="1" speed="13.90" length="29.30" shape="308.25,135.35 308.25,164.65"/>
        <lane id=":2/1_7_2" index="2" speed="13.90" length="29.30" shape="304.95,135.35 304.95,164.65"/>
        <lane id=":2/1_7_3" index="3" speed="13.90" length="29.30" shape="301.65,135.35 301.65,164.65"/>
    </edge>
    <edge id=":2/1_11" function="internal">
        <lane id=":2/1_11_0" index="0" speed="13.90" length="10.16" shape="301.65,135.35 300.63,143.92 299.95,145.29"/>
    </edge>
    <edge id=":2/1_12" function="internal">
        <lane id=":2/1_12_0" index="0" speed="13.90" length="8.53" shape="301.65,135.35 300.63,142.48 299.95,143.62"/>
    </edge>
    <edge id=":2/1_13" function="internal">
        <lane id=":2/1_13_0" index="0" speed="13.90" length="2.41" shape="301.65,135.35 300.83,136.59 300.00,137.00"/>
    </edge>
    <edge id=":2/1_21" function="internal">
        <lane id=":2/1_21_0" index="0" speed="13.90" length="18.84" shape="299.95,145.29 297.57,150.05 292.48,153.72 285.35,154.95"/>
    </edge>
    <edge id=":2/1_22" function="internal">
        <lane id=":2/1_22_0" index="0" speed="13.90" length="17.76" shape="299.95,143.62 297.57,147.57 292.48,150.63 285.35,151.65"/>
    </edge>
    <edge id=":2/1_23" function="internal">
        <lane id=":2/1_23_0" index="0" speed="13.90" length="2.41" shape="300.00,137.00 299.18,136.59 298.35,135.35"/>
    </edge>
    <edge id=":2/1_14" function="internal">
        <lane id=":2/1_14_0" index="0" speed="13.90" length="5.00" shape="285.35,138.45 286.71,138.26 287.68,137.67 288.26,136.71 288.45,135.35"/>
    </edge>
    <edge id=":2/1_15" function="internal">
        <lane id=":2/1_15_0" index="0" speed="13.90" length="10.32" shape="285.35,141.75 288.15,141.35 290.15,140.15 291.35,138.15 291.75,135.35"/>
    </edge>
    <edge id=":2/1_16" function="internal">
        <lane id=":2/1_16_0" index="0" speed="13.90" length="13.09" shape="285.35,141.75 289.59,141.35 292.63,140.15 294.44,138.15 295.05,135.35"/>
    </edge>
    <edge id=":2/1_17" function="internal">
        <lane id=":2/1_17_0" index="0" speed="13.90" length="31.61" shape="285.35,145.05 293.92,146.28 300.05,149.95 303.72,156.08 304.95,164.65"/>
    </edge>
    <edge id=":2/1_18" function="internal">
        <lane id=":2/1_18_0" index="0" speed="13.90" length="26.29" shape="285.35,148.35 292.48,149.37 297.57,152.42 300.63,157.52 301.65,164.65"/>
    </edge>
    <edge id=":2/1_19" function="internal">
        <lane id=":2/1_19_0" index="0" speed="13.90" length="4.82" shape="285.35,148.35 286.59,149.17 287.00,150.00 286.59,150.82 285.35,151.65"/>
    </edge>
    <edge id=":2/2_0" function="internal">
        <lane id=":2/2_0_0" index="0" speed="13.90" length="39.83" shape="311.55,286.85 310.01,297.66 305.38,305.38 297.66,310.01 286.85,311.55"/>
    </edge>
    <edge id=":2/2_1" function="internal">
        <lane id=":2/2_1_0" index="0" speed="13.90" length="34.51" shape="308.25,286.85 306.91,296.21 302.90,302.90 296.21,306.91 286.85,308.25"/>
    </edge>
    <edge id=":2/2_2" function="internal">
        <lane id=":2/2_2_0" index="0" speed="13.90" length="29.19" shape="304.95,286.85 303.82,294.77 300.42,300.43 294.77,303.82 286.85,304.95"/>
    </edge>
    <edge id=":2/2_3" function="internal">
        <lane id=":2/2_3_0" index="0" speed="13.90" length="23.87" shape="301.65,286.85 300.73,293.32 297.95,297.95 293.32,300.73 286.85,301.65"/>
    </edge>
    <edge id=":2/2_4" function="internal">