<?xml version="1.0" encoding="UTF-8"?>

<!-- generated on 05/12/20 21:45:02 by SUMO netgenerate Version 0.30.0
<?xml version="1.0" encoding="UTF-8"?>

<configuration xmlns:xsi="http://www.w3.org/2001/XMLSchema-instance" xsi:noNamespaceSchemaLocation="http://sumo.dlr.de/xsd/netgenerateConfiguration.xsd">

    <grid_network>
        <grid value="true"/>
        <grid.number value="4"/>
        <grid.length value="150"/>
    </grid_network>

    <output>
        <output-file value="map01.net.xml"/>
    </output>

    <building_defaults>
        <default.lanenumber value="4"/>
    </building_defaults>

</configuration>
-->

<net version="0.27" xmlns:xsi="http://www.w3.org/2001/XMLSchema-instance" xsi:noNamespaceSchemaLocation="http://sumo.dlr.de/xsd/net_file.xsd">

    <location netOffset="0.00,0.00" convBoundary="0.00,0.00,450.00,450.00" origBoundary="0.00,0.00,450.00,450.00" projParameter="!"/>

    <edge id=":0/0_0" function="internal">
        <lane id=":0/0_0_0" index="0" speed="13.90" length="31.85" shape="-11.55,13.15 -10.01,2.34 -5.38,-5.37 2.34,-10.01 13.15,-11.55"/>
        <lane id=":0/0_0_1" index="1" speed="13.90" length="31.85" shape="-8.25,13.15 -6.91,3.79 -2.90,-2.90 3.79,-6.91 13.15,-8.25"/>
        <lane id=":0/0_0_2" index="2" speed="13.90" length="31.85" shape="-4.95,13.15 -3.82,5.23 -0.42,-0.43 5.23,-3.82 13.15,-4.95"/>
        <lane id=":0/0_0_3" index="3" speed="13.90" length="31.85" shape="-1.65,13.15 -0.72,6.67 2.05,2.05 6.68,-0.73 13.15,-1.65"/>
    </edge>
    <edge id=":0/0_4" function="internal">
        <lane id=":0/0_4_0" index="0" speed="13.90" length="2.69" shape="-1.65,13.15 -0.83,11.91 0.00,11.50 0.25,11.63"/>
    </edge>
    <edge id=":0/0_10" function="internal">
        <lane id=":0/0_10_0" index="0" speed="13.90" length="2.13" shape="0.25,11.63 0.83,11.91 1.65,13.15"/>
    </edge>
    <edge id=":0/0_5" function="internal">
        <lane id=":0/0_5_0" index="0" speed="13.90" length="10.56" shape="13.15,11.55 12.45,11.65 11.95,11.95 11.65,12.45 11.55,13.15"/>
        <lane id=":0/0_5_1" index="1" speed="13.90" length="10.56" shape="13.15,8.25 11.01,8.56 9.48,9.48 8.56,11.01 8.25,13.15"/>
        <lane id=":0/0_5_2" index="2" speed="13.90" length="10.56" shape="13.15,4.95 9.56,5.46 7.00,7.00 5.46,9.56 4.95,13.15"/>
        <lane id=":0/0_5_3" index="3" speed="13.90" length="10.56" shape="13.15,1.65 8.12,2.37 4.53,4.53 2.37,8.12 1.65,13.15"/>
    </edge>
    <edge id=":0/0_9" function="internal">
        <lane id=":0/0_9_0" index="0" speed="13.90" length="2.20" shape="13.15,1.65 11.91,0.83 11.59,0.19"/>
    </edge>
    <edge id=":0/0_11" function="internal">
        <lane id=":0/0_11_0" index="0" speed="13.90" length="2.62" shape="11.59,0.19 11.50,0.00 11.91,-0.83 13.15,-1.65"/>
    </edge>
    <edge id=":0/1_0" function="internal">
        <lane id=":0/1_0_0" index="0" speed="13.90" length="29.30" shape="-11.55,164.65 -11.55,135.35"/>
        <lane id=":0/1_0_1" index="1" speed="13.90" length="29.30" shape="-8.25,164.65 -8.25,135.35"/>
        <lane id=":0/1_0_2" index="2" speed="13.90" length="29.30" shape="-4.95,164.65 -4.95,135.35"/>
        <lane id=":0/1_0_3" index="3" speed="13.90" length="29.30" shape="-1.65,164.65 -1.65,135.35"/>
    </edge>
    <edge id=":0/1_4" function="internal">
        <lane id=":0/1_4_0" index="0" speed="13.90" length="9.34" shape="-1.65,164.65 -0.63,156.08 0.05,154.71"/>
        <lane id=":0/1_4_1" index="1" speed="13.90" length="9.34" shape="-1.65,164.65 -0.63,157.52 0.05,156.38"/>
    </edge>
    <edge id=":0/1_6" function="internal">
        <lane id=":0/1_6_0" index="0" speed="13.90" length="2.41" shape="-1.65,164.65 -0.83,163.41 0.00,163.00"/>
    </edge>
    <edge id=":0/1_20" function="internal">
        <lane id=":0/1_20_0" index="0" speed="13.90" length="18.84" shape="0.05,154.71 2.43,149.95 7.52,146.28 14.65,145.05"/>
    </edge>
    <edge id=":0/1_21" function="internal">
        <lane id=":0/1_21_0" index="0" speed="13.90" length="17.76" shape="0.05,156.38 2.43,152.43 7.52,149.37 14.65,148.35"/>
    </edge>
    <edge id=":0/1_22" function="internal">
        <lane id=":0/1_22_0" index="0" speed="13.90" length="2.41" shape="0.00,163.00 0.83,163.41 1.65,164.65"/>
    </edge>
    <edge id=":0/1_7" function="internal">
        <lane id=":0/1_7_0" index="0" speed="13.90" length="9.47" shape="14.65,161.55 13.29,161.74 12.32,162.33 11.74,163.29 11.55,164.65"/>
        <lane id=":0/1_7_1" index="1" speed="13.90" length="9.47" shape="14.65,158.25 11.85,158.65 9.85,159.85 8.65,161.85 8.25,164.65"/>
        <lane id=":0/1_7_2" index="2" speed="13.90" length="9.47" shape="14.65,158.25 10.41,158.65 7.38,159.85 5.56,161.85 4.95,164.65"/>
    </edge>
    <edge id=":0/1_10" function="internal">
        <lane id=":0/1_10_0" index="0" speed="13.90" length="28.95" shape="14.65,154.95 6.08,153.72 -0.05,150.05 -3.73,143.92 -4.95,135.35"/>
        <lane id=":0/1_10_1" index="1" speed="13.90" length="28.95" shape="14.65,151.65 7.52,150.63 2.42,147.58 -0.63,142.48 -1.65,135.35"/>
    </edge>
    <edge id=":0/1_12" function="internal">
        <lane id=":0/1_12_0" index="0" speed="13.90" length="4.82" shape="14.65,151.65 13.41,150.83 13.00,150.00 13.41,149.18 14.65,148.35"/>
    </edge>
    <edge id=":0/1_13" function="internal">
        <lane id=":0/1_13_0" index="0" speed="13.90" length="6.42" shape="11.55,135.35 11.74,136.71 12.33,137.68 13.29,138.26 14.65,138.45"/>
        <lane id=":0/1_13_1" index="1" speed="13.90" length="6.42" shape="11.55,135.35 11.74,138.15 12.33,140.15 13.29,141.35 14.65,141.75"/>
    </edge>
    <edge id=":0/1_15" function="internal">
        <lane id=":0/1_15_0" index="0" speed="13.90" length="29.30" shape="11.55,135.35 11.55,164.65"/>
        <lane id=":0/1_15_1" index="1" speed="13.90" length="29.30" shape="8.25,135.35 8.25,164.65"/>
        <lane id=":0/1_15_2" index="2" speed="13.90" length="29.30" shape="4.95,135.35 4.95,164.65"/>
        <lane id=":0/1_15_3" index="3" speed="13.90" length="29.30" shape="1.65,135.35 1.65,164.65"/>
    </edge>
    <edge id=":0/1_19" function="internal">
        <lane id=":0/1_19_0" index="0" speed="13.90" length="2.41" shape="1.65,135.35 0.83,136.59 0.00,137.00"/>
    </edge>
    <edge id=":0/1_23" function="internal">
        <lane id=":0/1_23_0" index="0" speed="13.90" length="2.41" shape="0.00,137.00 -0.83,136.59 -1.65,135.35"/>
    </edge>
    <edge id=":0/2_0" function="internal">
        <lane id=":0/2_0_0" index="0" speed="13.90" length="29.30" shape="-11.55,314.65 -11.55,285.35"/>
        <lane id=":0/2_0_1" index="1" speed="13.90" length="29.30" shape="-8.25,314.65 -8.25,285.35"/>
        <lane id=":0/2_0_2" index="2" speed="13.90" length="29.30" shape="-4.95,314.65 -4.95,285.35"/>
        <lane id=":0/2_0_3" index="3" speed="13.90" length="29.30" shape="-1.65,314.65 -1.65,285.35"/>
    </edge>
    <edge id=":0/2_4" function="internal">
        <lane id=":0/2_4_0" index="0" speed="13.90" length="9.34" shape="-1.65,314.65 -0.63,306.08 0.05,304.71"/>
        <lane id=":0/2_4_1" index="1" speed="13.90" length="9.34" shape="-1.65,314.65 -0.63,307.52 0.05,306.38"/>
    </edge>
    <edge id=":0/2_6" function="internal">
        <lane id=":0/2_6_0" index="0" speed="13.90" length="2.41" shape="-1.65,314.65 -0.83,313.41 0.00,313.00"/>
    </edge>
    <edge id=":0/2_20" function="internal">
        <lane id=":0/2_20_0" index="0" speed="13.90" length="18.84" shape="0.05,304.71 2.43,299.95 7.52,296.28 14.65,295.05"/>
    </edge>
    <edge id=":0/2_21" function="internal">
        <lane id=":0/2_21_0" index="0" speed="13.90" length="17.76" shape="0.05,306.38 2.43,302.43 7.52,299.37 14.65,298.35"/>
    </edge>
    <edge id=":0/2_22" function="internal">
        <lane id=":0/2_22_0" index="0" speed="13.90" length="2.41" shape="0.00,313.00 0.83,313.41 1.65,314.65"/>
    </edge>
    <edge id=":0/2_7" function="internal">
        <lane id=":0/2_7_0" index="0" speed="13.90" length="9.47" shape="14.65,311.55 13.29,311.74 12.33,312.33 11.74,313.29 11.55,314.65"/>
        <lane id=":0/2_7_1" index="1" speed="13.90" length="9.47" shape="14.65,308.25 11.85,308.65 9.85,309.85 8.65,311.85 8.25,314.65"/>
        <lane id=":0/2_7_2" index="2" speed="13.90" length="9.47" shape="14.65,308.25 10.41,308.65 7.38,309.85 5.56,311.85 4.95,314.65"/>
    </edge>
    <edge id=":0/2_10" function="internal">
        <lane id=":0/2_10_0" index="0" speed="13.90" length="28.95" shape="14.65,304.95 6.08,303.73 -0.05,300.05 -3.73,293.92 -4.95,285.35"/>
        <lane id=":0/2_10_1" index="1" speed="13.90" length="28.95" shape="14.65,301.65 7.52,300.63 2.42,297.57 -0.63,292.48 -1.65,285.35"/>
    </edge>
    <edge id=":0/2_12" function="internal">
        <lane id=":0/2_12_0" index="0" speed="13.90" length="4.82" shape="14.65,301.65 13.41,300.83 13.00,300.00 13.41,299.18 14.65,298.35"/>
    </edge>
    <edge id=":0/2_13" function="internal">
        <lane id=":0/2_13_0" index="0" speed="13.90" length="6.42" shape="11.55,285.35 11.74,286.71 12.33,287.68 13.29,288.26 14.65,288.45"/>
        <lane id=":0/2_13_1" index="1" speed="13.90" length="6.42" shape="11.55,285.35 11.74,288.15 12.33,290.15 13.29,291.35 14.65,291.75"/>
    </edge>
    <edge id=":0/2_15" function="internal">
        <lane id=":0/2_15_0" index="0" speed="13.90" length="29.30" shape="11.55,285.35 11.55,314.65"/>
        <lane id=":0/2_15_1" index="1" speed="13.90" length="29.30" shape="8.25,285.35 8.25,314.65"/>
        <lane id=":0/2_15_2" index="2" speed="13.90" length="29.30" shape="4.95,285.35 4.95,314.65"/>
        <lane id=":0/2_15_3" index="3" speed="13.90" length="29.30" shape="1.65,285.35 1.65,314.65"/>
    </edge>
    <edge id=":0/2_19" function="internal">
        <lane id=":0/2_19_0" index="0" speed="13.90" length="2.41" shape="1.65,285.35 0.83,286.59 0.00,287.00"/>
    </edge>
    <edge id=":0/2_23" function="internal">
        <lane id=":0/2_23_0" index="0" speed="13.90" length="2.41" shape="0.00,287.00 -0.83,286.59 -1.65,285.35"/>
    </edge>
    <edge id=":0/3_0" function="internal">
        <lane id=":0/3_0_0" index="0" speed="13.90" length="31.85" shape="13.15,461.55 2.34,460.01 -5.38,455.38 -10.01,447.66 -11.55,436.85"/>
        <lane id=":0/3_0_1" index="1" speed="13.90" length="31.85" shape="13.15,458.25 3.79,456.91 -2.90,452.90 -6.91,446.21 -8.25,436.85"/>
        <lane id=":0/3_0_2" index="2" speed="13.90" length="31.85" shape="13.15,454.95 5.23,453.82 -0.43,450.42 -3.82,444.77 -4.95,436.85"/>
        <lane id=":0/3_0_3" index="3" speed="13.90" length="31.85" shape="13.15,451.65 6.67,450.73 2.05,447.95 -0.73,443.32 -1.65,436.85"/>
    </edge>
    <edge id=":0/3_4" function="internal">
        <lane id=":0/3_4_0" index="0" speed="13.90" length="2.69" shape="13.15,451.65 11.91,450.83 11.50,450.00 11.63,449.75"/>
    </edge>
    <edge id=":0/3_10" function="internal">
        <lane id=":0/3_10_0" index="0" speed="13.90" length="2.13" shape="11.63,449.75 11.91,449.18 13.15,448.35"/>
    </edge>
    <edge id=":0/3_5" function="internal">
        <lane id=":0/3_5_0" index="0" speed="13.90" length="10.56" shape="11.55,436.85 11.65,437.55 11.95,438.05 12.45,438.35 13.15,438.45"/>
        <lane id=":0/3_5_1" index="1" speed="13.90" length="10.56" shape="8.25,436.85 8.56,438.99 9.48,440.52 11.01,441.44 13.15,441.75"/>
        <lane id=":0/3_5_2" index="2" speed="13.90" length="10.56" shape="4.95,436.85 5.46,440.44 7.00,443.00 9.56,444.54 13.15,445.05"/>
        <lane id=":0/3_5_3" index="3" speed="13.90" length="10.56" shape="1.65,436.85 2.37,441.88 4.53,445.48 8.12,447.63 13.15,448.35"/>
    </edge>
    <edge id=":0/3_9" function="internal">
        <lane id=":0/3_9_0" index="0" speed="13.90" length="2.20" shape="1.65,436.85 0.83,438.09 0.19,438.41"/>
    </edge>
    <edge id=":0/3_11" function="internal">
        <lane id=":0/3_11_0" index="0" speed="13.90" length="2.62" shape="0.19,438.41 0.00,438.50 -0.83,438.09 -1.65,436.85"/>
    </edge>
    <edge id=":1/0_0" function="internal">
        <lane id=":1/0_0_0" index="0" speed="13.90" length="9.47" shape="138.45,14.65 138.26,13.29 137.67,12.32 136.71,11.74 135.35,11.55"/>
        <lane id=":1/0_0_1" index="1" speed="13.90" length="9.47" shape="141.75,14.65 141.35,11.85 140.15,9.85 138.15,8.65 135.35,8.25"/>
        <lane id=":1/0_0_2" index="2" speed="13.90" length="9.47" shape="141.75,14.65 141.35,10.41 140.15,7.38 138.15,5.56 135.35,4.95"/>
    </edge>
    <edge id=":1/0_3" function="internal">
        <lane id=":1/0_3_0" index="0" speed="13.90" length="28.95" shape="145.05,14.65 146.28,6.08 149.95,-0.05 156.08,-3.73 164.65,-4.95"/>
        <lane id=":1/0_3_1" index="1" speed="13.90" length="28.95" shape="148.35,14.65 149.37,7.52 152.42,2.42 157.52,-0.63 164.65,-1.65"/>
    </edge>
    <edge id=":1/0_5" function="internal">
        <lane id=":1/0_5_0" index="0" speed="13.90" length="4.82" shape="148.35,14.65 149.17,13.41 150.00,13.00 150.82,13.41 151.65,14.65"/>
    </edge>
    <edge id=":1/0_6" function="internal">
        <lane id=":1/0_6_0" index="0" speed="13.90" length="6.42" shape="164.65,11.55 163.29,11.74 162.32,12.33 161.74,13.29 161.55,14.65"/>
        <lane id=":1/0_6_1" index="1" speed="13.90" length="6.42" shape="164.65,11.55 161.85,11.74 159.85,12.33 158.65,13.29 158.25,14.65"/>
    </edge>
    <edge id=":1/0_8" function="internal">
        <lane id=":1/0_8_0" index="0" speed="13.90" length="29.30" shape="164.65,11.55 135.35,11.55"/>
        <lane id=":1/0_8_1" index="1" speed="13.90" length="29.30" shape="164.65,8.25 135.35,8.25"/>
        <lane id=":1/0_8_2" index="2" speed="13.90" length="29.30" shape="164.65,4.95 135.35,4.95"/>
        <lane id=":1/0_8_3" index="3" speed="13.90" length="29.30" shape="164.65,1.65 135.35,1.65"/>
    </edge>
    <edge id=":1/0_12" function="internal">
        <lane id=":1/0_12_0" index="0" speed="13.90" length="2.41" shape="164.65,1.65 163.41,0.83 163.00,0.00"/>
    </edge>
    <edge id=":1/0_20" function="internal">
        <lane id=":1/0_20_0" index="0" speed="13.90" length="2.41" shape="163.00,0.00 163.41,-0.83 164.65,-1.65"/>
    </edge>
    <edge id=":1/0_13" function="internal">
        <lane id=":1/0_13_0" index="0" speed="13.90" length="29.30" shape="135.35,-11.55 164.65,-11.55"/>
        <lane id=":1/0_13_1" index="1" speed="13.90" length="29.30" shape="135.35,-8.25 164.65,-8.25"/>
        <lane id=":1/0_13_2" index="2" speed="13.90" length="29.30" shape="135.35,-4.95 164.65,-4.95"/>
        <lane id=":1/0_13_3" index="3" speed="13.90" length="29.30" shape="135.35,-1.65 164.65,-1.65"/>
    </edge>
    <edge id=":1/0_17" function="internal">
        <lane id=":1/0_17_0" index="0" speed="13.90" length="9.34" shape="135.35,-1.65 143.92,-0.63 145.29,0.05"/>
        <lane id=":1/0_17_1" index="1" speed="13.90" length="9.34" shape="135.35,-1.65 142.48,-0.63 143.62,0.05"/>
    </edge>
    <edge id=":1/0_19" function="internal">
        <lane id=":1/0_19_0" index="0" speed="13.90" length="2.41" shape="135.35,-1.65 136.59,-0.83 137.00,0.00"/>
    </edge>
    <edge id=":1/0_21" function="internal">
        <lane id=":1/0_21_0" index="0" speed="13.90" length="18.84" shape="145.29,0.05 150.05,2.43 153.72,7.52 154.95,14.65"/>
    </edge>
    <edge id=":1/0_22" function="internal">
        <lane id=":1/0_22_0" index="0" speed="13.90" length="17.76" shape="143.62,0.05 147.57,2.43 150.63,7.52 151.65,14.65"/>
    </edge>
    <edge id=":1/0_23" function="internal">
        <lane id=":1/0_23_0" index="0" speed="13.90" length="2.41" shape="137.00,0.00 136.59,0.83 135.35,1.65"/>
    </edge>
    <edge id=":1/1_0" function="internal">
        <lane id=":1/1_0_0" index="0" speed="13.90" length="5.00" shape="138.45,164.65 138.26,163.29 137.67,162.32 136.71,161.74 135.35,161.55"/>
    </edge>
    <edge id=":1/1_1" function="internal">
        <lane id=":1/1_1_0" index="0" speed="13.90" length="29.30" shape="138.45,164.65 138.45,135.35"/>
        <lane id=":1/1_1_1" index="1" speed="13.90" length="29.30" shape="141.75,164.65 141.75,135.35"/>
        <lane id=":1/1_1_2" index="2" speed="13.90" length="29.30" shape="145.05,164.65 145.05,135.35"/>
        <lane id=":1/1_1_3" index="3" speed="13.90" length="29.30" shape="148.35,164.65 148.35,135.35"/>
    </edge>
    <edge id=":1/1_5" function="internal">
        <lane id=":1/1_5_0" index="0" speed="13.90" length="8.53" shape="148.35,164.65 149.37,157.52 150.05,156.38"/>
    </edge>
    <edge id=":1/1_6" function="internal">
        <lane id=":1/1_6_0" index="0" speed="13.90" length="2.41" shape="148.35,164.65 149.17,163.41 150.00,163.00"/>
    </edge>
    <edge id=":1/1_30" function="internal">
        <lane id=":1/1_30_0" index="0" speed="13.90" length="17.76" shape="150.05,156.38 152.42,152.43 157.52,149.37 164.65,148.35"/>
    </edge>
    <edge id=":1/1_31" function="internal">
        <lane id=":1/1_31_0" index="0" speed="13.90" length="2.41" shape="150.00,163.00 150.82,163.41 151.65,164.65"/>
    </edge>
    <edge id=":1/1_7" function="internal">
        <lane id=":1/1_7_0" index="0" speed="13.90" length="7.66" shape="164.65,161.55 163.29,161.74 162.32,162.33 161.74,163.29 161.55,164.65"/>
        <lane id=":1/1_7_1" index="1" speed="13.90" length="7.66" shape="164.65,158.25 161.85,158.65 159.85,159.85 158.65,161.85 158.25,164.65"/>
    </edge>
    <edge id=":1/1_9" function="internal">
        <lane id=":1/1_9_0" index="0" speed="13.90" length="29.38" shape="164.65,158.25 135.35,158.25"/>
        <lane id=":1/1_9_1" index="1" speed="13.90" length="29.38" shape="164.65,154.95 135.35,154.95"/>
        <lane id=":1/1_9_2" index="2" speed="13.90" length="29.38" shape="164.65,154.95 155.93,154.43 150.00,153.30 144.07,152.17 135.35,151.65"/>
    </edge>
    <edge id=":1/1_12" function="internal">
        <lane id=":1/1_12_0" index="0" speed="13.90" length="28.95" shape="164.65,154.95 156.08,153.72 149.95,150.05 146.28,143.92 145.05,135.35"/>
        <lane id=":1/1_12_1" index="1" speed="13.90" length="28.95" shape="164.65,151.65 157.52,150.63 152.43,147.58 149.37,142.48 148.35,135.35"/>
    </edge>
    <edge id=":1/1_14" function="internal">
        <lane id=":1/1_14_0" index="0" speed="13.90" length="4.82" shape="164.65,151.65 163.41,150.83 163.00,150.00 163.41,149.18 164.65,148.35"/>
    </edge>
    <edge id=":1/1_15" function="internal">
        <lane id=":1/1_15_0" index="0" speed="13.90" length="5.00" shape="161.55,135.35 161.74,136.71 162.33,137.68 163.29,138.26 164.65,138.45"/>
    </edge>
    <edge id=":1/1_16" function="internal">
        <lane id=":1/1_16_0" index="0" speed="13.90" length="29.30" shape="161.55,135.35 161.55,164.65"/>
        <lane id=":1/1_16_1" index="1" speed="13.90" length="29.30" shape="158.25,135.35 158.25,164.65"/>
        <lane id=":1/1_16_2" index="2" speed="13.90" length="29.30" shape="154.95,135.35 154.95,164.65"/>
        <lane id=":1/1_16_3" index="3" speed="13.90" length="29.30" shape="151.65,135.35 151.65,164.65"/>
    </edge>
    <edge id=":1/1_20" function="internal">
        <lane id=":1/1_20_0" index="0" speed="13.90" length="8.53" shape="151.65,135.35 150.63,142.48 149.95,143.62"/>
    </edge>
    <edge id=":1/1_21" function="internal">
        <lane id=":1/1_21_0" index="0" speed="13.90" length="2.41" shape="151.65,135.35 150.83,136.59 150.00,137.00"/>
    </edge>
    <edge id=":1/1_32" function="internal">
        <lane id=":1/1_32_0" index="0" speed="13.90" length="17.76" shape="149.95,143.62 147.58,147.57 142.48,150.63 135.35,151.65"/>
    </edge>
    <edge id=":1/1_33" function="internal">
        <lane id=":1/1_33_0" index="0" speed="13.90" length="2.41" shape="150.00,137.00 149.18,136.59 148.35,135.35"/>
    </edge>
    <edge id=":1/1_22" function="internal">
        <lane id=":1/1_22_0" index="0" speed="13.90" length="7.66" shape="135.35,138.45 136.71,138.26 137.68,137.67 138.26,136.71 138.45,135.35"/>
        <lane id=":1/1_22_1" index="1" speed="13.90" length="7.66" shape="135.35,141.75 138.15,141.35 140.15,140.15 141.35,138.15 141.75,135.35"/>
    </edge>
    <edge id=":1/1_24" function="internal">
        <lane id=":1/1_24_0" index="0" speed="13.90" length="29.38" shape="135.35,141.75 164.65,141.75"/>
        <lane id=":1/1_24_1" index="1" speed="13.90" length="29.38" shape="135.35,145.05 164.65,145.05"/>
        <lane id=":1/1_24_2" index="2" speed="13.90" length="29.38" shape="135.35,145.05 144.07,145.57 150.00,146.70 155.93,147.83 164.65,148.35"/>
    </edge>
    <edge id=":1/1_27" function="internal">
        <lane id=":1/1_27_0" index="0" speed="13.90" length="28.95" shape="135.35,145.05 143.92,146.28 150.05,149.95 153.72,156.08 154.95,164.65"/>
        <lane id=":1/1_27_1" index="1" speed="13.90" length="28.95" shape="135.35,148.35 142.48,149.37 147.57,152.42 150.63,157.52 151.65,164.65"/>
    </edge>
    <edge id=":1/1_29" function="internal">
        <lane id=":1/1_29_0" index="0" speed="13.90" length="4.82" shape="135.35,148.35 136.59,149.17 137.00,150.00 136.59,150.82 135.35,151.65"/>
    </edge>
    <edge id=":1/2_0" function="internal">
        <lane id=":1/2_0_0" index="0" speed="13.90" length="5.00" shape="138.45,314.65 138.26,313.29 137.67,312.32 136.71,311.74 135.35,311.55"/>
    </edge>
    <edge id=":1/2_1" function="internal">
        <lane id=":1/2_1_0" index="0" speed="13.90" length="29.30" shape="138.45,314.65 138.45,285.35"/>
        <lane id=":1/2_1_1" index="1" speed="13.90" length="29.30" shape="141.75,314.65 141.75,285.35"/>
        <lane id=":1/2_1_2" index="2" speed="13.90" length="29.30" shape="145.05,314.65 145.05,285.35"/>
        <lane id=":1/2_1_3" index="3" speed="13.90" length="29.30" shape="148.35,314.65 148.35,285.35"/>
    </edge>
    <edge id=":1/2_5" function="internal">
        <lane id=":1/2_5_0" index="0" speed="13.90" length="8.53" shape="148.35,314.65 149.37,307.52 150.05,306.38"/>
    </edge>
    <edge id=":1/2_6" function="internal">
        <lane id=":1/2_6_0" index="0" speed="13.90" length="2.41" shape="148.35,314.65 149.17,313.41 150.00,313.00"/>
    </edge>
    <edge id=":1/2_30" function="internal">
        <lane id=":1/2_30_0" index="0" speed="13.90" length="17.76" shape="150.05,306.38 152.42,302.43 157.52,299.37 164.65,298.35"/>
    </edge>
    <edge id=":1/2_31" function="internal">
        <lane id=":1/2_31_0" index="0" speed="13.90" length="2.41" shape="150.00,313.00 150.82,313.41 151.65,314.65"/>
    </edge>
    <edge id=":1/2_7" function="internal">
        <lane id=":1/2_7_0" index="0" speed="13.90" length="7.66" shape="164.65,311.55 163.29,311.74 162.32,312.33 161.74,313.29 161.55,314.65"/>
        <lane id=":1/2_7_1" index="1" speed="13.90" length="7.66" shape="164.65,308.25 161.85,308.65 159.85,309.85 158.65,311.85 158.25,314.65"/>
    </edge>
    <edge id=":1/2_9" function="internal">
        <lane id=":1/2_9_0" index="0" speed="13.90" length="29.38" shape="164.65,308.25 135.35,308.25"/>
        <lane id=":1/2_9_1" index="1" speed="13.90" length="29.38" shape="164.65,304.95 135.35,304.95"/>
        <lane id=":1/2_9_2" index="2" speed="13.90" length="29.38" shape="164.65,304.95 155.93,304.43 150.00,303.30 144.07,302.17 135.35,301.65"/>
    </edge>
    <edge id=":1/2_12" function="internal">
        <lane id=":1/2_12_0" index="0" speed="13.90" length="28.95" shape="164.65,304.95 156.08,303.73 149.95,300.05 146.28,293.92 145.05,285.35"/>
        <lane id=":1/2_12_1" index="1" speed="13.90" length="28.95" shape="164.65,301.65 157.52,300.63 152.43,297.57 149.37,292.48 148.35,285.35"/>
    </edge>
    <edge id=":1/2_14" function="internal">
        <lane id=":1/2_14_0" index="0" speed="13.90" length="4.82" shape="164.65,301.65 163.41,300.83 163.00,300.00 163.41,299.18 164.65,298.35"/>
    </edge>
    <edge id=":1/2_15" function="internal">
        <lane id=":1/2_15_0" index="0" speed="13.90" length="5.00" shape="161.55,285.35 161.74,286.71 162.33,287.68 163.29,288.26 164.65,288.45"/>
    </edge>
    <edge id=":1/2_16" function="internal">
        <lane id=":1/2_16_0" index="0" speed="13.90" length="29.30" shape="161.55,285.35 161.55,314.65"/>
        <lane id=":1/2_16_1" index="1" speed="13.90" length="29.30" shape="158.25,285.35 158.25,314.65"/>
        <lane id=":1/2_16_2" index="2" speed="13.90" length="29.30" shape="154.95,285.35 154.95,314.65"/>
        <lane id=":1/2_16_3" index="3" speed="13.90" length="29.30" shape="151.65,285.35 151.65,314.65"/>
    </edge>
    <edge id=":1/2_20" function="internal">
        <lane id=":1/2_20_0" index="0" speed="13.90" length="8.53" shape="151.65,285.35 150.63,292.48 149.95,293.62"/>
    </edge>
    <edge id=":1/2_21" function="internal">
        <lane id=":1/2_21_0" index="0" speed="13.90" length="2.41" shape="151.65,285.35 150.83,286.59 150.00,287.00"/>
    </edge>
    <edge id=":1/2_32" function="internal">
        <lane id=":1/2_32_0" index="0" speed="13.90" length="17.76" shape="149.95,293.62 147.58,297.57 142.48,300.63 135.35,301.65"/>
    </edge>
    <edge id=":1/2_33" function="internal">
        <lane id=":1/2_33_0" index="0" speed="13.90" length="2.41" shape="150.00,287.00 149.18,286.59 148.35,285.35"/>
    </edge>
    <edge id=":1/2_22" function="internal">
        <lane id=":1/2_22_0" index="0" speed="13.90" length="7.66" shape="135.35,288.45 136.71,288.26 137.68,287.67 138.26,286.71 138.45,285.35"/>
        <lane id=":1/2_22_1" index="1" speed="13.90" length="7.66" shape="135.35,291.75 138.15,291.35 140.15,290.15 141.35,288.15 141.75,285.35"/>
    </edge>
    <edge id=":1/2_24" function="internal">
        <lane id=":1/2_24_0" index="0" speed="13.90" length="29.38" shape="135.35,291.75 164.65,291.75"/>
        <lane id=":1/2_24_1" index="1" speed="13.90" length="29.38" shape="135.35,295.05 164.65,295.05"/>
        <lane id=":1/2_24_2" index="2" speed="13.90" length="29.38" shape="135.35,295.05 144.07,295.57 150.00,296.70 155.93,297.83 164.65,298.35"/>
    </edge>
    <edge id=":1/2_27" function="internal">
        <lane id=":1/2_27_0" index="0" speed="13.90" length="28.95" shape="135.35,295.05 143.92,296.27 150.05,299.95 153.72,306.08 154.95,314.65"/>
        <lane id=":1/2_27_1" index="1" speed="13.90" length="28.95" shape="135.35,298.35 142.48,299.37 147.57,302.43 150.63,307.52 151.65,314.65"/>
    </edge>
    <edge id=":1/2_29" function="internal">
        <lane id=":1/2_29_0" index="0" speed="13.90" length="4.82" shape="135.35,298.35 136.59,299.17 137.00,300.00 136.59,300.82 135.35,301.65"/>
    </edge>
    <edge id=":1/3_0" function="internal">
        <lane id=":1/3_0_0" index="0" speed="13.90" length="29.30" shape="164.65,461.55 135.35,461.55"/>
        <lane id=":1/3_0_1" index="1" speed="13.90" length="29.30" shape="164.65,458.25 135.35,458.25"/>
        <lane id=":1/3_0_2" index="2" speed="13.90" length="29.30" shape="164.65,454.95 135.35,454.95"/>
        <lane id=":1/3_0_3" index="3" speed="13.90" length="29.30" shape="164.65,451.65 135.35,451.65"/>
    </edge>
    <edge id=":1/3_4" function="internal">
        <lane id=":1/3_4_0" index="0" speed="13.90" length="9.34" shape="164.65,451.65 156.08,450.63 154.71,449.95"/>
        <lane id=":1/3_4_1" index="1" speed="13.90" length="9.34" shape="164.65,451.65 157.52,450.63 156.38,449.95"/>
    </edge>
    <edge id=":1/3_6" function="internal">
        <lane id=":1/3_6_0" index="0" speed="13.90" length="2.41" shape="164.65,451.65 163.41,450.83 163.00,450.00"/>
    </edge>
    <edge id=":1/3_20" function="internal">
        <lane id=":1/3_20_0" index="0" speed="13.90" length="18.84" shape="154.71,449.95 149.95,447.57 146.28,442.48 145.05,435.35"/>
    </edge>
    <edge id=":1/3_21" function="internal">
        <lane id=":1/3_21_0" index="0" speed="13.90" length="17.76" shape="156.38,449.95 152.43,447.57 149.37,442.48 148.35,435.35"/>
    </edge>
    <edge id=":1/3_22" function="internal">
        <lane id=":1/3_22_0" index="0" speed="13.90" length="2.41" shape="163.00,450.00 163.41,449.18 164.65,448.35"/>
    </edge>
    <edge id=":1/3_7" function="internal">
        <lane id=":1/3_7_0" index="0" speed="13.90" length="9.47" shape="161.55,435.35 161.74,436.71 162.33,437.68 163.29,438.26 164.65,438.45"/>
        <lane id=":1/3_7_1" index="1" speed="13.90" length="9.47" shape="158.25,435.35 158.65,438.15 159.85,440.15 161.85,441.35 164.65,441.75"/>
        <lane id=":1/3_7_2" index="2" speed="13.90" length="9.47" shape="158.25,435.35 158.65,439.59 159.85,442.63 161.85,444.44 164.65,445.05"/>
    </edge>
    <edge id=":1/3_10" function="internal">
        <lane id=":1/3_10_0" index="0" speed="13.90" length="28.95" shape="154.95,435.35 153.72,443.92 150.05,450.05 143.92,453.72 135.35,454.95"/>
        <lane id=":1/3_10_1" index="1" speed="13.90" length="28.95" shape="151.65,435.35 150.63,442.48 147.58,447.57 142.48,450.63 135.35,451.65"/>
    </edge>
    <edge id=":1/3_12" function="internal">
        <lane id=":1/3_12_0" index="0" speed="13.90" length="4.82" shape="151.65,435.35 150.83,436.59 150.00,437.00 149.18,436.59 148.35,435.35"/>
    </edge>
    <edge id=":1/3_13" function="internal">
        <lane id=":1/3_13_0" index="0" speed="13.90" length="6.42" shape="135.35,438.45 136.71,438.26 137.68,437.67 138.26,436.71 138.45,435.35"/>
        <lane id=":1/3_13_1" index="1" speed="13.90" length="6.42" shape="135.35,438.45 138.15,438.26 140.15,437.67 141.35,436.71 141.75,435.35"/>
    </edge>
    <edge id=":1/3_15" function="internal">
        <lane id=":1/3_15_0" index="0" speed="13.90" length="29.30" shape="135.35,438.45 164.65,438.45"/>
        <lane id=":1/3_15_1" index="1" speed="13.90" length="29.30" shape="135.35,441.75 164.65,441.75"/>
        <lane id=":1/3_15_2" index="2" speed="13.90" length="29.30" shape="135.35,445.05 164.65,445.05"/>
        <lane id=":1/3_15_3" index="3" speed="13.90" length="29.30" shape="135.35,448.35 164.65,448.35"/>
    </edge>
    <edge id=":1/3_19" function="internal">
        <lane id=":1/3_19_0" index="0" speed="13.90" length="2.41" shape="135.35,448.35 136.59,449.17 137.00,450.00"/>
    </edge>
    <edge id=":1/3_23" function="internal">