<routes>
	<vType id="vtype0" accel="2.6" decel="4.5" sigma="0.5" length="2.5" minGap="2.5" maxSpeed="14" color="1,1,0"/>
	<route id="route0" edges="3/1to3/2 3/2to2/2 2/2to1/2 1/2to0/2 0/2to0/1 0/1to1/1 1/1to1/0 1/0to2/0 2/0to3/0"/>
	<flow id="flow0" type="vtype0" route="route0" begin="0" period="3" number="2"/>
	<route id="route1" edges="3/3to3/2 3/2to2/2 2/2to1/2 1/2to0/2 0/2to0/1 0/1to0/0 0/0to0/1 0/1to0/2 0/2to1/2 1/2to1/3 1/3to2/3 2/3to3/3 3/3to3/2"/>
	<flow id="flow1" type="vtype0" route="route1" begin="0" period="3" number="2"/>
	<route id="route2" edges="3/0to3/1 3/1to2/1 2/1to1/1 1/1to1/2 1/2to1/3 1/3to0/3 0/3to0/2 0/2to0/1 0/1to1/1 1/1to1/0 1/0to2/0"/>
	<flow id="flow2" type="vtype0" route="route2" begin="0" period="3" number="2"/>
	<route id="route3" edges="2/3to1/3 1/3to1/2 1/2to1/1 1/1to1/0 1/0to2/0 2/0to3/0 3/0to3/1 3/1to2/1 2/1to1/1 1/1to1/2 1/2to0/2"/>
	<flow id="flow3" type="vtype0" route="route3" begin="0" period="3" number="2"/>
	<route id="route4" edges="3/3to2/3 2/3to1/3 1/3to1/2 1/2to1/1 1/1to1/0 1/0to1/1 1/1to1/2 1/2to1/3 1/3to0/3"/>
	<flow id="flow4" type="vtype0" route="route4" begin="0" period="3" number="2"/>
	<route id="route5" edges="3/2to3/1 3/1to2/1 2/1to1/1 1/1to0/1 0/1to0/2 0/2to0/3 0/3to1/3 1/3to1/2 1/2to1/1 1/1to2/1 2/1to3/1"/>
	<flow id="flow5" type="vtype0" route="route5" begin="0" period="3" number="2"/>
	<route id="route6" edges="0/3to0/2 0/2to0/1 0/1to1/1 1/1to1/0 1/0to2/0 2/0to3/0 3/0to3/1 3/1to2/1 2/1to1/1 1/1to1/2 1/2to1/3 1/3to1/2"/>
	<flow id="flow6" type="vtype0" route="route6" begin="0" period="3" number="2"/>
	<route id="route7" edges="0/0to1/0 1/0to1/1 1/1to1/2 1/2to1/3 1/3to2/3 2/3to1/3 1/3to1/2 1/2to1/1 1/1to1/0 1/0to2/0 2/0to1/0"/>
	<flow id="flow7" type="vtype0" route="route7" begin="0" period="3" number="2"/>
	<route id="route8" edges="3/1to3/2 3/2to2/2 2/2to1/2 1/2to0/2 0/2to0/1 0/1to0/0 0/0to1/0 1/0to1/1 1/1to1/2 1/2to2/2 2/2to3/2 3/2to3/3"/>
	<flow id="flow8" type="vtype0" route="route8" begin="0" period="3" number="2"/>
	<route id="route9" edges="3/0to3/1 3/1to2/1 2/1to1/1 1/1to0/1 0/1to0/2 0/2to0/3 0/3to1/3 1/3to1/2 1/2to1/1 1/1to2/1 2/1to3/1 3/1to3/0"/>
	<flow id="flow9" type="vtype0" route="route9" begin="0" period="3" number="2"/>
	<route id="route10" edges="3/3to3/2 3/2to2/2 2/2to1/2 1/2to0/2 0/2to0/1 0/1to0/0 0/0to1/0 1/0to1/1 1/1to1/2 1/2to1/3 1/3to2/3 2/3to3/3"/>
	<flow id="flow10" type="vtype0" route="route10" begin="0" period="3" number="2"/>
	<route id="route11" edges="2/0to1/0 1/0to1/1 1/1to1/2 1/2to1/3 1/3to2/3 2/3to3/3 3/3to2/3 2/3to1/3 1/3to1/2 1/2to1/1 1/1to1/0 1/0to0/0"/>
	<flow id="flow11" type="vtype0" route="route11" begin="0" period="3" number="2"/>
	<route id="route12" edges="2/3to2/2 2/2to1/2 1/2to0/2 0/2to0/1 0/1to0/0 0/0to0/1 0/1to1/1 1/1to2/1 2/1to3/1 3/1to3/2"/>
	<flow id="flow12" type="vtype0" route="route12" begin="0" period="3" number="2"/>
	<route id="route13" edges="0/0to0/1 0/1to0/2 0/2to1/2 1/2to1/3 1/3to2/3 2/3to3/3 3/3to2/3 2/3to1/3 1/3to1/2 1/2to0/2 0/2to0/1 0/1to0/0 0/0to1/0"/>
	<flow id="flow13" type="vtype0" route="route13" begin="0" period="3" number="2"/>
	<route id="route14" edges="3/0to2/0 2/0to1/0 1/0to1/1 1/1to1/2 1/2to1/3 1/3to0/3 0/3to0/2 0/2to0/1 0/1to1/1 1/1to2/1 2/1to2/0"/>
	<flow id="flow14" type="vtype0" route="route14" begin="0" period="3" number="2"/>
	<route id="route15" edges="2/3to3/3 3/3to2/3 2/3to1/3 1/3to1/2 1/2to0/2 0/2to0/1 0/1to0/0 0/0to1/0 1/0to1/1 1/1to1/2 1/2to2/2 2/2to3/2 3/2to3/3"/>
	<flow id="flow15" type="vtype0" route="route15" begin="0" period="3" number="2"/>
	<route id="route16" edges="3/3to2/3 2/3to1/3 1/3to1/2 1/2to0/2 0/2to0/1 0/1to0/0 0/0to1/0 1/0to1/1 1/1to1/2 1/2to2/2 2/2to3/2"/>
	<flow id="flow16" type="vtype0" route="route16" begin="0" period="3" number="2"/>
	<route id="route17" edges="0/3to0/2 0/2to0/1 0/1to1/1 1/1to1/0 1/0to2/0 2/0to3/0 3/0to2/0 2/0to1/0 1/0to1/1 1/1to1/2 1/2to0/2"/>
	<flow id="flow17" type="vtype0" route="route17" begin="0" period="3" number="2"/>
	<route id="route18" edges="3/0to3/1 3/1to2/1 2/1to1/1 1/1to0/1 0/1to0/2 0/2to0/3 0/3to1/3 1/3to1/2 1/2to1/1 1/1to1/0 1/0to2/0"/>
	<flow id="flow18" type="vtype0" route="route18" begin="0" period="3" number="2"/>
	<route id="route19" edges="2/2to1/2 1/2to0/2 0/2to0/1 0/1to0/0 0/0to1/0 1/0to1/1 1/1to1/2 1/2to1/3 1/3to2/3 2/3to3/3"/>
	<flow id="flow19" type="vtype0" route="route19" begin="0" period="3" number="2"/>
	<route id="route20" edges="3/0to2/0 2/0to2/1 2/1to2/2 2/2to2/3 2/3to2/2 2/2to1/2 1/2to1/1 1/1to1/0 1/0to0/0"/>
	<flow id="flow20" type="vtype0" route="route20" begin="0" period="3" number="2"/>
	<route id="route21" edges="2/0to3/0 3/0to2/0 2/0to1/0 1/0to1/1 1/1to0/1 0/1to0/2 0/2to0/3 0/3to0/2 0/2to0/1 0/1to1/1 1/1to1/0 1/0to2/0 2/0to3/0 3/0to3/1"/>
	<flow id="flow21" type="vtype0" route="route21" begin="0" period="3" number="2"/>
	<route id="route22" edges="2/3to1/3 1/3to1/2 1/2to0/2 0/2to0/1 0/1to0/0 0/0to1/0 1/0to1/1 1/1to1/2 1/2to1/3 1/3to2/3 2/3to3/3 3/3to3/2"/>
	<flow id="flow22" type="vtype0" route="route22" begin="0" period="3" number="2"/>
	<route id="route23" edges="3/0to2/0 2/0to1/0 1/0to1/1 1/1to0/1 0/1to0/2 0/2to0/3 0/3to0/2 0/2to0/1 0/1to1/1 1/1to2/1 2/1to3/1"/>
	<flow id="flow23" type="vtype0" route="route23" begin="0" period="3" number="2"/>
</routes>