<routes>
	<vType id='vtype0' accel='2.6' decel='4.5' sigma='0.5' length='2.5' minGap='2.5' maxSpeed='14' color='1,1,0'/>
	<route id='route0' edges='0/0to1/0 1/0to2/0 2/0to1/0 1/0to1/1 1/1to1/2'/>
	<flow id='flow0' type='vtype0' route='route0' begin='0' period='3' number='1'/>
	<route id='route1' edges='1/2to2/2 2/2to2/1 2/1to2/0 2/0to1/0 1/0to0/0'/>
	<flow id='flow1' type='vtype0' route='route1' begin='0' period='3' number='1'/>
	<route id='route2' edges='0/2to1/2 1/2to2/2 2/2to2/1 2/1to1/1 1/1to1/0 1/0to2/0'/>
	<flow id='flow2' type='vtype0' route='route2' begin='0' period='3' number='1'/>
</routes>